[root]
type=Root
children=system
eventq_index=0
full_system=false
sim_quantum=0
time_sync_enable=false
time_sync_period=100000000000
time_sync_spin_threshold=100000000

[system]
type=System
children=chiplet_link clk_domain dvfs_handler packet_gen workload
auto_unlink_shared_backstore=false
cache_line_size=64
eventq_index=0
exit_on_work_items=false
init_param=0
m5ops_base=0
mem_mode=atomic
mem_ranges=
memories=
mmap_using_noreserve=false
multi_thread=false
num_work_ids=16
readfile=
redirect_paths=
shadow_rom_ranges=
shared_backstore=
symbolfile=
thermal_components=
thermal_model=Null
work_begin_ckpt_count=0
work_begin_cpu_id_exit=-1
work_begin_exit_count=0
work_cpus_ckpt_count=0
work_end_ckpt_count=0
work_end_exit_count=0
work_item_id=-1
workload=system.workload

[system.chiplet_link]
type=SimpleChipletLink
bandwidth=16
baseLatency=1
bitErrorRate=1e-12
encodingOverhead=1.0
eventq_index=0
linkWidth=16
protocol=0
randomSeed=0
plp_port=system.packet_gen.plp_port

[system.clk_domain]
type=SrcClockDomain
children=voltage_domain
clock=1000
domain_id=-1
eventq_index=0
init_perf_level=0
voltage_domain=system.clk_domain.voltage_domain

[system.clk_domain.voltage_domain]
type=VoltageDomain
eventq_index=0
voltage=1.0

[system.dvfs_handler]
type=DVFSHandler
domains=
enable=false
eventq_index=0
sys_clk_domain=system.clk_domain
transition_latency=100000000

[system.packet_gen]
type=PacketGenerator
Protocol=1
eventq_index=0
latency=1
packet_num=10
plp_port=system.chiplet_link.plp_port

[system.workload]
type=StubWorkload
byte_order=little
entry=0
eventq_index=0
remote_gdb_port=#7000
wait_for_remote_gdb=false

